psse_raw/synthetic_data_v29.raw
0,   100.00          / PSS/E-29.3    WED, SEP 15 2021  21:04
   SE SNAPSHOT 15-09-2021 PEAK CASE 18:00
   FULL COPY OF SYNTHETIC
     1,'AAA    3    ', 111.0000,4,     0.000,     0.000, 327,   1,0.00000,   0.0000,   1
222222,'PRPR C D    ',  42.0000,1,     0.000,     0.000, 694,  24,1.11117,  20.0606,   7
0 / END OF BUS DATA, BEGIN LOAD DATA
     1,'1 ',1, 327,   1,     0.000,     0.000,     0.000,     0.000,     0.000,     0.000,   1
222222,'99',1, 694,  24,     0.003,     0.003,     0.000,     0.000,     0.000,     0.000,   7
0 / END OF LOAD DATA, BEGIN GENERATOR DATA
   104,'1 ',    33.800,  -127.243,   100.000,  -110.000,0.91106,     0,   174.000,   0.00000,   1.00000,   0.00000,   0.00000,1.00000,1,  100.0,   150.000,     0.000,   3,1.0000
0 / END OF GENERATOR DATA, BEGIN BRANCH DATA
     1,-543210,'1 ',   0.00000,   0.00001,   0.00000,  300.00,  300.00,  300.00,  0.00000,  0.00000,  0.00000,  0.00000,0,   0.00,  42,1.0000
     2,      9,'6 ',   0.00233,   0.05555,   0.00788,  250.00,  201.00,  201.00,  0.00000,  0.00000,  0.00000,  0.00000,1,   0.00,   1,1.0000
222222, 333333,'1 ',   0.05151,   0.12356,   0.00667,   82.00,   87.00,   88.00,  0.00000,  0.00000,  0.00000,  0.00000,1,   0.00,   7,1.0000
0 / END OF BRANCH DATA, BEGIN TRANSFORMER DATA
    42,250083,     0,'K1',1,1,1,   0.00000,   0.00000,2,'    AK1     ',1,   2,1.0000
   0.00250,   0.07310,   100.00
1.00000,  69.000,   0.000,   100.00,   110.00,   110.00, 0,      0, 1.00000, 1.00000, 0.00000, 0.00000,   2, 0, 0.00000, 0.00000
1.00000, 138.000
  4774,212222,     0,'90',1,1,1,   0.00000,   0.00000,2,'    CCCC90  ',1,  84,1.0000
   0.00000,   0.19100,   100.00
1.04620,  13.600,   0.000,     0.00,     0.00,     0.00, 0,      0, 1.04620, 1.04620, 0.00000, 0.00000,   2, 0, 0.00000, 0.00000
1.04500, 240.350
222222,    11,     0,'B1',1,1,1,   0.00000,   0.00000,2,'    BK1     ',1,   2,1.0000
   0.00050,   0.03131,   100.00
1.00000, 123.000,   0.000,   432.00,   567.00,   567.00, 0,      0, 1.00000, 1.00000, 0.00000, 0.00000,   2, 0, 0.00000, 0.00000
0.98250, 345.000
0 / END OF TRANSFORMER DATA, BEGIN AREA DATA
 615,615001,    32.677,     5.000,'RE          '
 762,  1234,  -224.384,     5.000,'OTP         '
0 / END OF AREA DATA, BEGIN TWO-TERMINAL DC DATA
0 / END OF TWO-TERMINAL DC DATA, BEGIN VSC DC LINE DATA
0 / END OF VSC DC LINE DATA, BEGIN SWITCHED SHUNT DATA
   175,1,1.04200,0.92200,     0,  100.0,'            ',   39.52, 2,  19.76
   177,0,1.06400,0.98400,     0,  100.0,'            ',    0.00, 1,  15.60, 1,  17.69
0 / END OF SWITCHED SHUNT DATA, BEGIN IMPEDANCE CORRECTION DATA
 1, -44.00, 1.34000, -31.30, 4.44000, -22.20, 4.00000, -21.70, 3.03030, -13.50, 2.00000,   0.00, 1.00000,  13.50, 1.76000,  27.50, 5.67800,  33.30, 3.66600,  41.70, 2.25000,  47.00, 3.34000
 2, -38.90, 2.40600, -34.50, 2.25200, -17.00, 1.11900, -10.30, 1.90600,  -5.50, 2.02900,   2.70, 1.00900,   9.00, 4.18100,  15.00, 6.16100,  22.20, 1.19900,  28.80, 3.45600,  35.10, 1.12900
0 / END OF IMPEDANCE CORRECTION DATA, BEGIN MULTI-TERMINAL DC DATA
 1, 4, 5, 4, 1, 212,    400.00, 0
   402, 4,10.00, 8.00, 0.0000,19.0000, 500.0,0.22000,1.01000,1.10000,0.97000,0.01000,   321.00, 1.0000,  0.15000, 3
   401, 4,10.00, 8.00, 0.0000,19.0000, 500.0,0.22000,1.01000,1.10000,0.97000,0.01000,   321.00, 1.0000,  0.15000, 3
   212, 4,20.00,18.00, 0.0000,10.0000, 230.0,0.45200,1.04000,1.10000,0.90000,0.01000,   500.00, 1.0000,  0.00000, 1
   213, 4,20.00,18.00, 0.0000,10.0000, 230.0,0.45200,1.10000,1.10000,0.90000,0.01000,  -303.80, 1.0000,  0.00000, 4
  1,   401,   4,   4,'DC1         ', 0,   0.0000, 4
  2,   212,   2,   2,'DC2         ', 0,   0.0000, 2
  3,   402,   4,   4,'DC3         ', 0,   0.0000, 4
  4,   213,   2,   2,'DC4         ', 0,   0.0000, 2
  5,     0,   4,   4,'DC5         ', 0,   0.0000, 4
  1,  5,'1',   29.0000,      0.00
  2,  5,'1',   29.0000,      0.00
  3,  5,'1',   29.0000,      0.00
  4,  5,'1',   29.0000,      0.00
0 / END OF MULTI-TERMINAL DC DATA, BEGIN MULTI-SECTION LINE DATA
0 / END OF MULTI-SECTION LINE DATA, BEGIN ZONE DATA
   1,'ABL         '
   9,'EFGN        '
0 / END OF ZONE DATA, BEGIN INTER-AREA TRANSFER DATA
0 / END OF INTER-AREA TRANSFER DATA, BEGIN OWNER DATA
   1,'      EAI   '
   2,'      OUYK  '
0 / END OF OWNER DATA, BEGIN FACTS DEVICE DATA
0 / END OF FACTS DEVICE DATA
